# DIS package for  MODFLOW-NWT, generated by Flopy.
         1       198       274        21         5         2
  0
OPEN/CLOSE                      ./delr.ref               1 (274E15.6) -1 delr                          
OPEN/CLOSE                      ./delc.ref               1 (198E15.6) -1 delc                          
OPEN/CLOSE                 ./model_top.ref               1 (274E15.6) -1 model_top                     
OPEN/CLOSE              ./botm_layer_1.ref               1 (274E15.6) -1 botm layer 1                  
      1.000000             1  1.000000  SS 
      5.000000             5  1.000000  TR 
     33.000000            33  1.000000  TR 
     21.000000            21  1.000000  TR 
      1.000000             1  1.000000  TR 
      1.000000             1  1.000000  TR 
      1.000000             1  1.000000  TR 
      1.000000             1  1.000000  TR 
      1.000000             1  1.000000  TR 
      1.000000             1  1.000000  TR 
      1.000000             1  1.000000  TR 
      1.000000             1  1.000000  TR 
      1.000000             1  1.000000  TR 
      1.000000             1  1.000000  TR 
      1.000000             1  1.000000  TR 
      1.000000             1  1.000000  TR 
      1.000000             1  1.000000  TR 
      1.000000             1  1.000000  TR 
      1.000000             1  1.000000  TR 
      1.000000             1  1.000000  TR 
      1.000000             1  1.000000  TR 
