# CHD package for  MODFLOW-NWT, generated by Flopy.
       189
       189         0 # stress period 1
         open/close ./CHD_0000.dat
       189         0 # stress period 2
         open/close ./CHD_0001.dat
       189         0 # stress period 3
         open/close ./CHD_0002.dat
       189         0 # stress period 4
         open/close ./CHD_0003.dat
       189         0 # stress period 5
         open/close ./CHD_0004.dat
       189         0 # stress period 6
         open/close ./CHD_0005.dat
       189         0 # stress period 7
         open/close ./CHD_0006.dat
       189         0 # stress period 8
         open/close ./CHD_0007.dat
       189         0 # stress period 9
         open/close ./CHD_0008.dat
       189         0 # stress period 10
         open/close ./CHD_0009.dat
       189         0 # stress period 11
         open/close ./CHD_0010.dat
       189         0 # stress period 12
         open/close ./CHD_0011.dat
       189         0 # stress period 13
         open/close ./CHD_0012.dat
       189         0 # stress period 14
         open/close ./CHD_0013.dat
       189         0 # stress period 15
         open/close ./CHD_0014.dat
       189         0 # stress period 16
         open/close ./CHD_0015.dat
       189         0 # stress period 17
         open/close ./CHD_0016.dat
       189         0 # stress period 18
         open/close ./CHD_0017.dat
       189         0 # stress period 19
         open/close ./CHD_0018.dat
       189         0 # stress period 20
         open/close ./CHD_0019.dat
       189         0 # stress period 21
         open/close ./CHD_0020.dat
