# UPW package for  MODFLOW-NWT, generated by Flopy.
         0    -1E+30         0         0 
         1
         0
   1.000000E+00
         0
         0
OPEN/CLOSE                ./hk_layer_1.ref               1     (FREE) -1 hk layer 1                    
OPEN/CLOSE                      ./vka1.ref               1     (FREE) -1 vka1                          
OPEN/CLOSE                ./ss_layer_1.ref               1     (FREE) -1 ss layer 1                    
OPEN/CLOSE                ./sy_layer_1.ref               1     (FREE) -1 sy layer 1                    
