431 536 -999.0 # HYD package for  MODFLOW-NWT, generated by Flopy.
BAS HD C 1 53115.671875 14542.7568359375 1DC15224 
BAS HD C 1 53115.671875 14542.7568359375 7DC15225 
BAS HD C 1 53115.671875 14542.7568359375 2DC15226 
BAS HD C 1 53115.671875 14542.7568359375 8DC15227 
BAS HD C 1 53115.671875 14542.7568359375 1DC15228 
BAS HD C 1 53115.671875 14542.7568359375 2DC15230 
BAS HD C 1 53115.671875 14542.7568359375 4DC15231 
BAS HD C 1 53115.671875 14542.7568359375 2DC15232 
BAS HD C 1 53115.671875 14542.7568359375 1DC15233 
BAS HD C 1 53745.1484375 16308.6357421875 8DC13452 
BAS HD C 1 53745.1484375 16308.6357421875 5DC13456 
BAS HD C 1 55750.50390625 16879.431640625 8AA13424 
BAS HD C 1 55750.50390625 16879.431640625 7AA13425 
BAS HD C 1 55750.50390625 16879.431640625 8AA13426 
BAS HD C 1 55750.50390625 16879.431640625 6AA13427 
BAS HD C 1 20760.2109375 17535.56640625 401S3518 
BAS HD C 1 20760.2109375 17535.56640625 401S3535 
BAS HD C 1 20760.2109375 17535.56640625 301S3536 
BAS HD C 1 20760.2109375 17535.56640625 801S3537 
BAS HD C 1 20760.2109375 17535.56640625 801S3538 
BAS HD C 1 20760.2109375 17535.56640625 101S3539 
BAS HD C 1 20760.2109375 17535.56640625 501S3540 
BAS HD C 1 20760.2109375 17535.56640625 701S3542 
BAS HD C 1 20760.2109375 17535.56640625 601S3543 
BAS HD C 1 20760.2109375 17535.56640625 601S3544 
BAS HD C 1 20760.2109375 17535.56640625 301S3547 
BAS HD C 1 20760.2109375 17535.56640625 101S3548 
BAS HD C 1 20760.2109375 17535.56640625 401S3549 
BAS HD C 1 20760.2109375 17535.56640625 201S3550 
BAS HD C 1 20760.2109375 17535.56640625 401S3551 
BAS HD C 1 22379.0703125 17613.81640625 601S4018 
BAS HD C 1 22379.0703125 17613.81640625 701S4035 
BAS HD C 1 22379.0703125 17613.81640625 401S4036 
BAS HD C 1 22379.0703125 17613.81640625 501S4037 
BAS HD C 1 22379.0703125 17613.81640625 601S4038 
BAS HD C 1 22379.0703125 17613.81640625 601S4039 
BAS HD C 1 22379.0703125 17613.81640625 301S4040 
BAS HD C 1 22379.0703125 17613.81640625 501S4042 
BAS HD C 1 22379.0703125 17613.81640625 501S4043 
BAS HD C 1 22379.0703125 17613.81640625 701S4044 
BAS HD C 1 22379.0703125 17613.81640625 601S4047 
BAS HD C 1 22379.0703125 17613.81640625 501S4048 
BAS HD C 1 22379.0703125 17613.81640625 801S4049 
BAS HD C 1 22379.0703125 17613.81640625 301S4050 
BAS HD C 1 22379.0703125 17613.81640625 601S4051 
BAS HD C 1 22379.0703125 17613.81640625 301S4069 
BAS HD C 1 25588.046875 17929.2421875 601S3335 
BAS HD C 1 25588.046875 17929.2421875 801S3336 
BAS HD C 1 25588.046875 17929.2421875 701S3337 
BAS HD C 1 25588.046875 17929.2421875 101S3338 
BAS HD C 1 27190.5703125 18098.86328125 301S3339 
BAS HD C 1 27190.5703125 18098.86328125 501S3340 
BAS HD C 1 27190.5703125 18098.86328125 101S3350 
BAS HD C 1 28796.10546875 18259.2578125 401S3342 
BAS HD C 1 28796.10546875 18259.2578125 401S3343 
BAS HD C 1 28796.10546875 18259.2578125 701S3344 
BAS HD C 1 28796.10546875 18259.2578125 701S3347 
BAS HD C 1 28796.10546875 18259.2578125 101S3348 
BAS HD C 1 28796.10546875 18259.2578125 501S3349 
BAS HD C 1 28796.10546875 18259.2578125 401S3351 
BAS HD C 1 30426.650390625 18706.310546875 306S4264 
BAS HD C 1 21225.7734375 18532.623046875 202S4264 
BAS HD C 1 33448.671875 18847.90625 703S4564 
BAS HD C 1 33448.671875 18847.90625 803S4566 
BAS HD C 1 33448.671875 18847.90625 403S4567 
BAS HD C 1 32282.4921875 18823.6484375 201S4164 
BAS HD C 1 31416.58984375 18805.248046875 701S4464 
BAS HD C 1 31416.58984375 18805.248046875 601S4466 
BAS HD C 1 29526.3125 18773.693359375 401S4364 
BAS HD C 1 29526.3125 18773.693359375 501S4366 
BAS HD C 1 28160.119140625 18746.7578125 501S4664 
BAS HD C 1 28160.119140625 18746.7578125 601S4666 
BAS HD C 1 26686.892578125 18718.634765625 201S4167 
BAS HD C 1 26526.599609375 18722.7421875 402S2864 
BAS HD C 1 26223.587890625 18710.337890625 602S4064 
BAS HD C 1 25320.1796875 18693.3125 201S4564 
BAS HD C 1 25320.1796875 18693.3125 301S4566 
BAS HD C 1 25320.1796875 18693.3125 501S4567 
BAS HD C 1 24093.998046875 18675.994140625 501S4264 
BAS HD C 1 21964.51953125 18636.251953125 701S5364 
BAS HD C 1 21964.51953125 18636.251953125 501S5366 
BAS HD C 1 21964.51953125 18636.251953125 701S5367 
BAS HD C 1 21964.51953125 18636.251953125 201S5368 
BAS HD C 1 20289.0859375 18613.734375 301S4367 
BAS HD C 1 19590.380859375 18600.908203125 201S6364 
BAS HD C 1 19590.380859375 18600.908203125 501S6366 
BAS HD C 1 19590.380859375 18600.908203125 301S6367 
BAS HD C 1 19590.380859375 18600.908203125 801S6368 
BAS HD C 1 19590.380859375 18600.908203125 501S6369 
BAS HD C 1 17637.140625 18570.794921875 702S4164 
BAS HD C 1 35816.25 19215.8125 201S11056 
BAS HD C 1 35816.25 19215.8125 201S11057 
BAS HD C 1 35816.25 19215.8125 801S11060 
BAS HD C 1 35816.25 19215.8125 101S11061 
BAS HD C 1 35816.25 19215.8125 401S11062 
BAS HD C 1 35816.25 19215.8125 301S11063 
BAS HD C 1 35816.25 19215.8125 201S11064 
BAS HD C 1 35816.25 19215.8125 301S11065 
BAS HD C 1 35816.25 19215.8125 601S11066 
BAS HD C 1 35816.25 19215.8125 101S11067 
BAS HD C 1 35816.25 19215.8125 401S11068 
BAS HD C 1 35816.25 19215.8125 501S11069 
BAS HD C 1 35816.25 19215.8125 801S11070 
BAS HD C 1 35816.25 19215.8125 601S11071 
BAS HD C 1 35816.25 19215.8125 201S11072 
BAS HD C 1 35816.25 19215.8125 601S11073 
BAS HD C 1 35816.25 19215.8125 301S11074 
BAS HD C 1 35816.25 19215.8125 401S11075 
BAS HD C 1 35816.25 19215.8125 201S11076 
BAS HD C 1 35816.25 19215.8125 401S11077 
BAS HD C 1 36414.62109375 19471.236328125 402S2620 
BAS HD C 1 36414.62109375 19471.236328125 202S2621 
BAS HD C 1 36414.62109375 19471.236328125 802S2622 
BAS HD C 1 27169.830078125 19294.5390625 701S3047 
BAS HD C 1 27169.830078125 19294.5390625 301S3049 
BAS HD C 1 27169.830078125 19294.5390625 701S3050 
BAS HD C 1 27169.830078125 19294.5390625 701S3051 
BAS HD C 1 27169.830078125 19294.5390625 801S3052 
BAS HD C 1 27169.830078125 19294.5390625 601S3053 
BAS HD C 1 27169.830078125 19294.5390625 501S3054 
BAS HD C 1 27169.830078125 19294.5390625 101S3055 
BAS HD C 1 27169.830078125 19294.5390625 301S3056 
BAS HD C 1 34604.3046875 19577.693359375 701S9664 
BAS HD C 1 34604.3046875 19577.693359375 401S9668 
BAS HD C 1 34604.3046875 19577.693359375 301S9669 
BAS HD C 1 34604.3046875 19577.693359375 701S9670 
BAS HD C 1 34604.3046875 19577.693359375 101S9671 
BAS HD C 1 34604.3046875 19577.693359375 301S9672 
BAS HD C 1 34604.3046875 19577.693359375 101S9673 
BAS HD C 1 34604.3046875 19577.693359375 401S9674 
BAS HD C 1 34604.3046875 19577.693359375 401S9675 
BAS HD C 1 34604.3046875 19577.693359375 801S9676 
BAS HD C 1 34604.3046875 19577.693359375 801S9677 
BAS HD C 1 17451.75 19361.759765625 201S3322 
BAS HD C 1 17451.75 19361.759765625 701S3366 
BAS HD C 1 17451.75 19361.759765625 701S3368 
BAS HD C 1 17451.75 19361.759765625 801S3369 
BAS HD C 1 17451.75 19361.759765625 701S3371 
BAS HD C 1 17451.75 19361.759765625 501S3373 
BAS HD C 1 17451.75 19361.759765625 701S3374 
BAS HD C 1 17451.75 19361.759765625 601S3375 
BAS HD C 1 17451.75 19361.759765625 601S3376 
BAS HD C 1 44826.3828125 20081.671875 401S4070 
BAS HD C 1 44826.3828125 20081.671875 401S4071 
BAS HD C 1 44826.3828125 20081.671875 101S4072 
BAS HD C 1 44826.3828125 20081.671875 101S4073 
BAS HD C 1 44826.3828125 20081.671875 801S4074 
BAS HD C 1 44826.3828125 20081.671875 701S4075 
BAS HD C 1 44826.3828125 20081.671875 801S4076 
BAS HD C 1 44826.3828125 20081.671875 501S4077 
BAS HD C 1 35935.65234375 20051.30859375 704S4264 
BAS HD C 1 35912.40234375 20108.166015625 603S4864 
BAS HD C 1 35912.40234375 20108.166015625 503S4867 
BAS HD C 1 47919.36328125 20609.1015625 503S4367 
BAS HD C 1 47919.36328125 20609.1015625 603S4369 
BAS HD C 1 47919.36328125 20609.1015625 603S4370 
BAS HD C 1 47919.36328125 20609.1015625 103S4371 
BAS HD C 1 47919.36328125 20609.1015625 203S4372 
BAS HD C 1 47919.36328125 20609.1015625 403S4373 
BAS HD C 1 47919.36328125 20609.1015625 203S4374 
BAS HD C 1 47919.36328125 20609.1015625 503S4375 
BAS HD C 1 47919.36328125 20609.1015625 703S4376 
BAS HD C 1 47919.36328125 20609.1015625 803S4377 
BAS HD C 1 50572.56640625 20680.521484375 304S4164 
BAS HD C 1 47905.16796875 20615.28125 802S5656 
BAS HD C 1 47905.16796875 20615.28125 202S5657 
BAS HD C 1 47905.16796875 20615.28125 402S5663 
BAS HD C 1 47905.16796875 20615.28125 502S5667 
BAS HD C 1 47905.16796875 20615.28125 702S5668 
BAS HD C 1 47905.16796875 20615.28125 202S5669 
BAS HD C 1 47905.16796875 20615.28125 402S5670 
BAS HD C 1 47905.16796875 20615.28125 702S5671 
BAS HD C 1 47905.16796875 20615.28125 502S5672 
BAS HD C 1 47905.16796875 20615.28125 602S5673 
BAS HD C 1 47905.16796875 20615.28125 602S5674 
BAS HD C 1 47905.16796875 20615.28125 102S5675 
BAS HD C 1 47905.16796875 20615.28125 202S5676 
BAS HD C 1 47905.16796875 20615.28125 702S5677 
BAS HD C 1 49155.99609375 20686.603515625 601S3364 
BAS HD C 1 50465.5625 20800.91796875 303S4164 
BAS HD C 1 50371.68359375 21003.87109375 201S4667 
BAS HD C 1 56197.15625 21315.548828125 501S3656 
BAS HD C 1 56197.15625 21315.548828125 101S3662 
BAS HD C 1 50298.546875 21236.53125 701S4764 
BAS HD C 1 50298.546875 21236.53125 701S4767 
BAS HD C 1 27245.822265625 20805.669921875 301S4635 
BAS HD C 1 27245.822265625 20805.669921875 401S4636 
BAS HD C 1 27245.822265625 20805.669921875 601S4637 
BAS HD C 1 27245.822265625 20805.669921875 101S4638 
BAS HD C 1 33572.37109375 20956.5859375 201S3147 
BAS HD C 1 33572.37109375 20956.5859375 101S3149 
BAS HD C 1 33572.37109375 20956.5859375 801S3150 
BAS HD C 1 33572.37109375 20956.5859375 401S3151 
BAS HD C 1 33572.37109375 20956.5859375 801S3152 
BAS HD C 1 33572.37109375 20956.5859375 101S3153 
BAS HD C 1 33572.37109375 20956.5859375 101S3154 
BAS HD C 1 33572.37109375 20956.5859375 701S3155 
BAS HD C 1 33572.37109375 20956.5859375 301S3156 
BAS HD C 1 23938.537109375 20775.294921875 401S5635 
BAS HD C 1 23938.537109375 20775.294921875 601S5636 
BAS HD C 1 23938.537109375 20775.294921875 101S5637 
BAS HD C 1 23938.537109375 20775.294921875 601S5638 
BAS HD C 1 23938.537109375 20775.294921875 701S5639 
BAS HD C 1 23938.537109375 20775.294921875 501S5640 
BAS HD C 1 23938.537109375 20775.294921875 701S5642 
BAS HD C 1 23938.537109375 20775.294921875 501S5643 
BAS HD C 1 23938.537109375 20775.294921875 201S5644 
BAS HD C 1 23938.537109375 20775.294921875 401S5647 
BAS HD C 1 23938.537109375 20775.294921875 801S5648 
BAS HD C 1 23938.537109375 20775.294921875 101S5650 
BAS HD C 1 23938.537109375 20775.294921875 801S5651 
BAS HD C 1 23938.537109375 20775.294921875 201S5652 
BAS HD C 1 23938.537109375 20775.294921875 301S5653 
BAS HD C 1 23938.537109375 20775.294921875 201S5654 
BAS HD C 1 23938.537109375 20775.294921875 101S5655 
BAS HD C 1 23938.537109375 20775.294921875 701S5656 
BAS HD C 1 50853.25390625 21319.373046875 801S6852 
BAS HD C 1 50853.25390625 21319.373046875 301S6856 
BAS HD C 1 50853.25390625 21319.373046875 701S6857 
BAS HD C 1 50853.25390625 21319.373046875 401S6865 
BAS HD C 1 50853.25390625 21319.373046875 801S6866 
BAS HD C 1 50853.25390625 21319.373046875 801S6867 
BAS HD C 1 50853.25390625 21319.373046875 501S6868 
BAS HD C 1 50853.25390625 21319.373046875 501S6869 
BAS HD C 1 50853.25390625 21319.373046875 601S6870 
BAS HD C 1 50853.25390625 21319.373046875 501S6871 
BAS HD C 1 50853.25390625 21319.373046875 301S6872 
BAS HD C 1 50853.25390625 21319.373046875 801S6873 
BAS HD C 1 50853.25390625 21319.373046875 401S6874 
BAS HD C 1 50853.25390625 21319.373046875 201S6875 
BAS HD C 1 50853.25390625 21319.373046875 201S6876 
BAS HD C 1 50853.25390625 21319.373046875 101S6877 
BAS HD C 1 31979.859375 20954.9375 502S3247 
BAS HD C 1 31979.859375 20954.9375 102S3249 
BAS HD C 1 31979.859375 20954.9375 702S3250 
BAS HD C 1 31979.859375 20954.9375 802S3251 
BAS HD C 1 31979.859375 20954.9375 802S3252 
BAS HD C 1 31979.859375 20954.9375 802S3253 
BAS HD C 1 31979.859375 20954.9375 102S3254 
BAS HD C 1 31979.859375 20954.9375 302S3255 
BAS HD C 1 31979.859375 20954.9375 402S3256 
BAS HD C 1 28754.82421875 20895.576171875 701S5535 
BAS HD C 1 28754.82421875 20895.576171875 201S5536 
BAS HD C 1 28754.82421875 20895.576171875 401S5537 
BAS HD C 1 28754.82421875 20895.576171875 201S5538 
BAS HD C 1 28754.82421875 20895.576171875 701S5539 
BAS HD C 1 28754.82421875 20895.576171875 601S5540 
BAS HD C 1 28754.82421875 20895.576171875 401S5542 
BAS HD C 1 28754.82421875 20895.576171875 701S5543 
BAS HD C 1 28754.82421875 20895.576171875 601S5544 
BAS HD C 1 28754.82421875 20895.576171875 801S5547 
BAS HD C 1 28754.82421875 20895.576171875 601S5548 
BAS HD C 1 28754.82421875 20895.576171875 301S5549 
BAS HD C 1 28754.82421875 20895.576171875 501S5550 
BAS HD C 1 28754.82421875 20895.576171875 401S5551 
BAS HD C 1 28754.82421875 20895.576171875 201S5552 
BAS HD C 1 28754.82421875 20895.576171875 301S5553 
BAS HD C 1 28754.82421875 20895.576171875 101S5554 
BAS HD C 1 28754.82421875 20895.576171875 401S5555 
BAS HD C 1 28754.82421875 20895.576171875 601S5556 
BAS HD C 1 25523.375 20989.337890625 102S5218 
BAS HD C 1 25523.375 20989.337890625 402S5235 
BAS HD C 1 25523.375 20989.337890625 602S5236 
BAS HD C 1 25523.375 20989.337890625 802S5237 
BAS HD C 1 25523.375 20989.337890625 202S5238 
BAS HD C 1 25523.375 20989.337890625 802S5239 
BAS HD C 1 25523.375 20989.337890625 302S5240 
BAS HD C 1 25523.375 20989.337890625 502S5242 
BAS HD C 1 25523.375 20989.337890625 402S5243 
BAS HD C 1 25523.375 20989.337890625 802S5244 
BAS HD C 1 25523.375 20989.337890625 502S5247 
BAS HD C 1 25523.375 20989.337890625 202S5248 
BAS HD C 1 25523.375 20989.337890625 102S5250 
BAS HD C 1 25523.375 20989.337890625 202S5251 
BAS HD C 1 25523.375 20989.337890625 202S5252 
BAS HD C 1 25523.375 20989.337890625 702S5253 
BAS HD C 1 25523.375 20989.337890625 202S5254 
BAS HD C 1 25523.375 20989.337890625 202S5255 
BAS HD C 1 25523.375 20989.337890625 702S5256 
BAS HD C 1 45738.1796875 22100.50390625 803S4264 
BAS HD C 1 38358.90234375 22182.80859375 501S4964 
BAS HD C 1 38358.90234375 22182.80859375 201S4967 
BAS HD C 1 39174.60546875 22472.91796875 501S12545 
BAS HD C 1 39174.60546875 22472.91796875 701S12559 
BAS HD C 1 39174.60546875 22472.91796875 401S12560 
BAS HD C 1 39174.60546875 22472.91796875 301S12561 
BAS HD C 1 39174.60546875 22472.91796875 101S12562 
BAS HD C 1 39174.60546875 22472.91796875 401S12563 
BAS HD C 1 39174.60546875 22472.91796875 101S12564 
BAS HD C 1 39174.60546875 22472.91796875 201S12565 
BAS HD C 1 39174.60546875 22472.91796875 701S12566 
BAS HD C 1 39174.60546875 22472.91796875 701S12567 
BAS HD C 1 39174.60546875 22472.91796875 601S12568 
BAS HD C 1 39174.60546875 22472.91796875 601S12569 
BAS HD C 1 39174.60546875 22472.91796875 801S12570 
BAS HD C 1 39174.60546875 22472.91796875 101S12571 
BAS HD C 1 39174.60546875 22472.91796875 201S12572 
BAS HD C 1 39174.60546875 22472.91796875 801S12573 
BAS HD C 1 39174.60546875 22472.91796875 101S12574 
BAS HD C 1 39174.60546875 22472.91796875 701S12575 
BAS HD C 1 39174.60546875 22472.91796875 501S12576 
BAS HD C 1 39174.60546875 22472.91796875 201S12577 
BAS HD C 1 56764.75 23003.021484375 101S5224 
BAS HD C 1 56764.75 23003.021484375 401S5225 
BAS HD C 1 56764.75 23003.021484375 201S5226 
BAS HD C 1 56764.75 23003.021484375 101S5227 
BAS HD C 1 56764.75 23003.021484375 801S5228 
BAS HD C 1 56764.75 23003.021484375 301S5229 
BAS HD C 1 56764.75 23003.021484375 501S5230 
BAS HD C 1 56764.75 23003.021484375 401S5231 
BAS HD C 1 56764.75 23003.021484375 701S5232 
BAS HD C 1 56764.75 23003.021484375 301S5233 
BAS HD C 1 42143.96484375 22746.23046875 601S4064 
BAS HD C 1 42143.96484375 22746.23046875 201S4067 
BAS HD C 1 31044.130859375 22546.345703125 701S3825 
BAS HD C 1 31044.130859375 22546.345703125 801S3856 
BAS HD C 1 31044.130859375 22546.345703125 201S3863 
BAS HD C 1 31044.130859375 22546.345703125 701S3868 
BAS HD C 1 31044.130859375 22546.345703125 801S3869 
BAS HD C 1 31044.130859375 22546.345703125 701S3871 
BAS HD C 1 31044.130859375 22546.345703125 801S3873 
BAS HD C 1 31044.130859375 22546.345703125 701S3874 
BAS HD C 1 31044.130859375 22546.345703125 701S3875 
BAS HD C 1 31044.130859375 22546.345703125 701S3876 
BAS HD C 1 47407.28125 22994.958984375 401S13557 
BAS HD C 1 47407.28125 22994.958984375 301S13559 
BAS HD C 1 47407.28125 22994.958984375 701S13560 
BAS HD C 1 47407.28125 22994.958984375 401S13561 
BAS HD C 1 47407.28125 22994.958984375 201S13562 
BAS HD C 1 47407.28125 22994.958984375 301S13563 
BAS HD C 1 47407.28125 22994.958984375 801S13564 
BAS HD C 1 47407.28125 22994.958984375 601S13565 
BAS HD C 1 47407.28125 22994.958984375 201S13566 
BAS HD C 1 47407.28125 22994.958984375 301S13567 
BAS HD C 1 47407.28125 22994.958984375 101S13568 
BAS HD C 1 47407.28125 22994.958984375 101S13569 
BAS HD C 1 47407.28125 22994.958984375 601S13570 
BAS HD C 1 47407.28125 22994.958984375 101S13571 
BAS HD C 1 47407.28125 22994.958984375 501S13572 
BAS HD C 1 47407.28125 22994.958984375 401S13573 
BAS HD C 1 47407.28125 22994.958984375 101S13574 
BAS HD C 1 47407.28125 22994.958984375 501S13575 
BAS HD C 1 47407.28125 22994.958984375 801S13576 
BAS HD C 1 47407.28125 22994.958984375 201S13577 
BAS HD C 1 39906.5 23006.080078125 302S6164 
BAS HD C 1 39906.5 23006.080078125 802S6167 
BAS HD C 1 39906.5 23006.080078125 802S6168 
BAS HD C 1 39906.5 23006.080078125 702S6169 
BAS HD C 1 39917.53125 23014.619140625 103S5964 
BAS HD C 1 39917.53125 23014.619140625 303S5967 
BAS HD C 1 39917.53125 23014.619140625 703S5968 
BAS HD C 1 39917.53125 23014.619140625 303S5969 
BAS HD C 1 39917.53125 23014.619140625 303S5970 
BAS HD C 1 42502.16796875 23231.388671875 702S4167 
BAS HD C 1 42015.0390625 23778.970703125 601S4571 
BAS HD C 1 42015.0390625 23778.970703125 301S4572 
BAS HD C 1 42015.0390625 23778.970703125 301S4573 
BAS HD C 1 42015.0390625 23778.970703125 101S4574 
BAS HD C 1 42015.0390625 23778.970703125 801S4575 
BAS HD C 1 42015.0390625 23778.970703125 301S4576 
BAS HD C 1 42015.0390625 23778.970703125 801S4577 
BAS HD C 1 41244.29296875 24020.74609375 301S5557 
BAS HD C 1 41244.29296875 24020.74609375 501S5563 
BAS HD C 1 41244.29296875 24020.74609375 701S5568 
BAS HD C 1 41244.29296875 24020.74609375 501S5569 
BAS HD C 1 41244.29296875 24020.74609375 801S5570 
BAS HD C 1 41244.29296875 24020.74609375 201S5571 
BAS HD C 1 41244.29296875 24020.74609375 601S5572 
BAS HD C 1 41244.29296875 24020.74609375 801S5573 
BAS HD C 1 41244.29296875 24020.74609375 301S5574 
BAS HD C 1 41244.29296875 24020.74609375 101S5575 
BAS HD C 1 41244.29296875 24020.74609375 101S5576 
BAS HD C 1 41244.29296875 24020.74609375 201S5577 
BAS HD C 1 41642.5625 24093.466796875 202S4464 
BAS HD C 1 41642.5625 24093.466796875 802S4467 
BAS HD C 1 41810.2734375 24183.43359375 503S6464 
BAS HD C 1 41810.2734375 24183.43359375 803S6467 
BAS HD C 1 41810.2734375 24183.43359375 503S6468 
BAS HD C 1 41810.2734375 24183.43359375 203S6469 
BAS HD C 1 41810.2734375 24183.43359375 403S6471 
BAS HD C 1 41810.2734375 24183.43359375 403S6473 
BAS HD C 1 41810.2734375 24183.43359375 803S6474 
BAS HD C 1 41810.2734375 24183.43359375 103S6475 
BAS HD C 1 41887.6640625 24232.447265625 201S4467 
BAS HD C 1 29686.080078125 24330.408203125 301S3121 
BAS HD C 1 29686.080078125 24330.408203125 801S3168 
BAS HD C 1 29686.080078125 24330.408203125 201S3169 
BAS HD C 1 29686.080078125 24330.408203125 601S3171 
BAS HD C 1 29686.080078125 24330.408203125 801S3173 
BAS HD C 1 29686.080078125 24330.408203125 701S3174 
BAS HD C 1 29686.080078125 24330.408203125 401S3175 
BAS HD C 1 44625.84765625 24896.927734375 401S5657 
BAS HD C 1 44625.84765625 24896.927734375 201S5668 
BAS HD C 1 44625.84765625 24896.927734375 401S5669 
BAS HD C 1 44625.84765625 24896.927734375 601S5670 
BAS HD C 1 44625.84765625 24896.927734375 201S5671 
BAS HD C 1 44625.84765625 24896.927734375 401S5672 
BAS HD C 1 44625.84765625 24896.927734375 801S5673 
BAS HD C 1 44625.84765625 24896.927734375 101S5674 
BAS HD C 1 44625.84765625 24896.927734375 701S5675 
BAS HD C 1 44625.84765625 24896.927734375 201S5676 
BAS HD C 1 44625.84765625 24896.927734375 401S5677 
BAS HD C 1 44458.3671875 27115.23828125 101S7222 
BAS HD C 1 44458.3671875 27115.23828125 701S7256 
BAS HD C 1 44458.3671875 27115.23828125 701S7257 
BAS HD C 1 44458.3671875 27115.23828125 201S7266 
BAS HD C 1 44458.3671875 27115.23828125 401S7267 
BAS HD C 1 44458.3671875 27115.23828125 701S7268 
BAS HD C 1 44458.3671875 27115.23828125 601S7269 
BAS HD C 1 44458.3671875 27115.23828125 601S7270 
BAS HD C 1 44458.3671875 27115.23828125 801S7271 
BAS HD C 1 44458.3671875 27115.23828125 501S7272 
BAS HD C 1 44458.3671875 27115.23828125 401S7273 
BAS HD C 1 44458.3671875 27115.23828125 701S7274 
BAS HD C 1 44458.3671875 27115.23828125 601S7275 
BAS HD C 1 44458.3671875 27115.23828125 801S7276 
BAS HD C 1 25743.1875 27717.19921875 501S3247 
BAS HD C 1 25743.1875 27717.19921875 601S3249 
BAS HD C 1 25743.1875 27717.19921875 201S3250 
BAS HD C 1 25743.1875 27717.19921875 701S3251 
BAS HD C 1 25743.1875 27717.19921875 401S3252 
BAS HD C 1 25743.1875 27717.19921875 701S3253 
BAS HD C 1 25743.1875 27717.19921875 601S3254 
BAS HD C 1 25743.1875 27717.19921875 801S3255 
BAS HD C 1 25743.1875 27717.19921875 601S3256 
BAS HD C 1 14402.919921875 32626.5546875 101S2820 
BAS HD C 1 14402.919921875 32626.5546875 201S2821 
BAS HD C 1 14402.919921875 32626.5546875 301S2822 
BAS HD C 1 19767.39453125 34040.265625 501S3020 
BAS HD C 1 19767.39453125 34040.265625 501S3021 
BAS HD C 1 19767.39453125 34040.265625 701S3022 
