# Name file for MODFLOW-NWT, generated by Flopy version 3.3.1.
#xll:658103.0925360782; yll:3601514.985022293; rotation:0.0; proj4_str:EPSG:26911; units:meters; lenuni:2; start_datetime:5-1-1942
LIST               2  model1.list
DIS               11  model1.dis
BAS6              13  model1.bas
NWT               32  model1.nwt
OC                14  model1.oc
RCH               19  model1.rch
CHD               24  model1.chd
DRN               21  model1.drn
UPW               31  model1.upw
WEL               20  model1.wel
HYD               36  model1.hyd
DATA(BINARY)      51  model1.hds REPLACE
DATA(BINARY)      53  model1.cbc REPLACE
DATA(BINARY)     536  model1.hyd.bin REPLACE
