# DRN package for  MODFLOW-NWT, generated by Flopy.
       135        53
       135         0 # stress period 1
         open/close ./DRN_0000.dat
       135         0 # stress period 2
         open/close ./DRN_0001.dat
       135         0 # stress period 3
         open/close ./DRN_0002.dat
       135         0 # stress period 4
         open/close ./DRN_0003.dat
       135         0 # stress period 5
         open/close ./DRN_0004.dat
       135         0 # stress period 6
         open/close ./DRN_0005.dat
       135         0 # stress period 7
         open/close ./DRN_0006.dat
       135         0 # stress period 8
         open/close ./DRN_0007.dat
       135         0 # stress period 9
         open/close ./DRN_0008.dat
       135         0 # stress period 10
         open/close ./DRN_0009.dat
       135         0 # stress period 11
         open/close ./DRN_0010.dat
       135         0 # stress period 12
         open/close ./DRN_0011.dat
       135         0 # stress period 13
         open/close ./DRN_0012.dat
       135         0 # stress period 14
         open/close ./DRN_0013.dat
       135         0 # stress period 15
         open/close ./DRN_0014.dat
       135         0 # stress period 16
         open/close ./DRN_0015.dat
       135         0 # stress period 17
         open/close ./DRN_0016.dat
       135         0 # stress period 18
         open/close ./DRN_0017.dat
       135         0 # stress period 19
         open/close ./DRN_0018.dat
       135         0 # stress period 20
         open/close ./DRN_0019.dat
       135         0 # stress period 21
         open/close ./DRN_0020.dat
