# Basic package input for MODFLOW2005 Back to Original
PRINTTIME SHOWPROGRESS
OPEN/CLOSE ../externalfiles/arrays/ZONE1.arz      1 (40i4)  -4      # IBOUND layer1
OPEN/CLOSE ../externalfiles/arrays/ZONE2.arz      1 (40i4)  -4      # IBOUND layer2
OPEN/CLOSE ../externalfiles/arrays/ZONE3.arz      1 (40i4)  -4      # IBOUND layer3
OPEN/CLOSE ../externalfiles/arrays/MOD_ZONE4.arz  1 (40i4)  -4      # IBOUND layer4
OPEN/CLOSE ../externalfiles/arrays/IBND5.array    1 (160i1)  -4      # IBOUND layer5
OPEN/CLOSE ../externalfiles/arrays/IBND6.array    1 (160i1)  -4      # IBOUND layer6
OPEN/CLOSE ../externalfiles/arrays/IBND7.array    1 (160i1)  -4      # IBOUND layer7
OPEN/CLOSE ../externalfiles/arrays/IBND8.array    1 (160i1)  -4      # IBOUND layer8
OPEN/CLOSE ../externalfiles/arrays/IBND9.array    1 (160i1)  -4      # IBOUND layer9
              -999.                                         # HNOFLO
external 52 1.0 (10F8.2) -7 
external 52 1.0 (10F8.2) -7 
external 52 1.0 (10F8.2) -7 
external 52 1.0 (10F8.2) -7 
external 52 1.0 (10F8.2) -7 
external 52 1.0 (10F8.2) -7 
external 52 1.0 (10F8.2) -7 
external 52 1.0 (10F8.2) -7 
external 52 1.0 (10F8.2) -7
