# BAS6 package for  MODFLOW-NWT, generated by Flopy.
FREE
OPEN/CLOSE  ../externalfiles/ibound_layer_1.ref               1     (FREE) -1 ibound_layer_0                
OPEN/CLOSE  ../externalfiles/ibound_layer_2.ref               1     (FREE) -1 ibound_layer_1                
OPEN/CLOSE  ../externalfiles/ibound_layer_3.ref               1     (FREE) -1 ibound_layer_2                
OPEN/CLOSE  ../externalfiles/ibound_layer_4.ref               1     (FREE) -1 ibound_layer_3                
    -999.0
OPEN/CLOSE  ../externalfiles/strt_layer_1.ref               1     (FREE) -1 strt_layer_0                  
OPEN/CLOSE  ../externalfiles/strt_layer_2.ref               1     (FREE) -1 strt_layer_1                  
OPEN/CLOSE  ../externalfiles/strt_layer_3.ref               1     (FREE) -1 strt_layer_2                  
OPEN/CLOSE  ../externalfiles/strt_layer_4.ref               1     (FREE) -1 strt_layer_3                  
