200 536 -999.0 # HYD package for  MODFLOW-NWT, generated by Flopy.
BAS HD C 2 5322.20166015625 58720.625 pwh_spng_003 
BAS HD C 3 7897.40576171875 57972.0703125 pwh_spng_004 
BAS HD C 3 13785.6435546875 58235.1484375 pwh_spng_006 
BAS HD I 3 14529.076171875 58626.5 pwh_spng_007 
BAS HD I 3 14989.6796875 58706.765625 pwh_spng_008 
BAS HD C 2 16267.4150390625 59165.3828125 pwh_spng_009 
BAS HD I 3 24616.525390625 54530.04296875 pwh_spng_010 
BAS HD I 3 24730.412109375 53883.03125 pwh_spng_011 
BAS HD I 3 25555.087890625 54573.51953125 pwh_spng_012 
BAS HD C 4 12786.8935546875 36515.421875 pwh_spng_013 
BAS HD I 4 37936.046875 49369.609375 pwh_spng_014 
BAS HD I 3 17566.9453125 32917.8984375 pwh_spng_015 
BAS HD I 3 42337.7890625 42361.8125 pwh_spng_016 
BAS HD I 2 23140.46875 28325.548828125 pwh_spng_017 
BAS HD C 3 45610.87109375 42246.84765625 pwh_spng_018 
BAS HD C 3 57665.140625 48749.37890625 pwh_spng_019 
BAS HD I 4 53757.890625 39462.63671875 pwh_spng_021 
BAS HD I 4 50788.546875 37545.046875 pwh_spng_022 
BAS HD I 3 62516.5 48758.73046875 pwh_spng_023 
BAS HD I 4 63112.36328125 49767.6953125 pwh_spng_024 
BAS HD I 3 51293.9375 35024.21875 pwh_spng_026 
BAS HD I 3 51541.2265625 33679.26953125 pwh_spng_027 
BAS HD I 3 49707.65234375 32169.322265625 pwh_spng_028 
BAS HD I 2 66766.1015625 45191.66015625 pwh_spng_029 
BAS HD I 3 76804.328125 53518.96875 pwh_spng_032 
BAS HD I 3 50752.6484375 30607.71484375 pwh_spng_034 
BAS HD I 3 50701.9140625 29134.83984375 pwh_spng_035 
BAS HD C 2 50765.9140625 28743.6015625 pwh_spng_036 
BAS HD C 1 49740.640625 28800.912109375 pwh_spng_038 
BAS HD I 3 73102.5859375 43375.24609375 pwh_spng_040 
BAS HD C 3 72008.3515625 6404.572265625 nwi_spng_000 
BAS HD I 4 66644.5 4078.518310546875 nwi_spng_001 
BAS HD I 2 70385.3828125 7622.62841796875 nwi_spng_002 
BAS HD I 4 67372.15625 6000.23046875 nwi_spng_003 
BAS HD I 4 67871.375 6847.46435546875 nwi_spng_004 
BAS HD I 4 65782.6328125 6391.0361328125 nwi_spng_006 
BAS HD I 4 68768.2578125 8512.0263671875 nwi_spng_007 
BAS HD C 1 69174.015625 9408.611328125 nwi_spng_008 
BAS HD C 1 66725.953125 8122.8037109375 nwi_spng_009 
BAS HD I 4 67224.3046875 10115.10546875 nwi_spng_010 
BAS HD I 3 59013.58203125 12154.4140625 nwi_spng_011 
BAS HD I 1 79246.765625 31508.025390625 nwi_spng_012 
BAS HD C 1 75199.4765625 34185.28515625 nwi_spng_013 
BAS HD I 2 73359.2734375 35590.4453125 nwi_spng_014 
BAS HD I 2 73321.2421875 35602.19140625 nwi_spng_015 
BAS HD I 3 73406.109375 40025.20703125 nwi_spng_016 
BAS HD I 2 48555.39453125 24571.494140625 nwi_spng_017 
BAS HD I 1 50059.390625 25674.662109375 nwi_spng_018 
BAS HD I 2 72803.7109375 44251.2265625 nwi_spng_020 
BAS HD I 3 52154.265625 31454.458984375 nwi_spng_021 
BAS HD I 3 52001.30859375 31685.953125 nwi_spng_022 
BAS HD I 3 76401.5859375 53420.16796875 nwi_spng_023 
BAS HD I 4 50480.6171875 37591.23828125 nwi_spng_024 
BAS HD I 2 53986.43359375 40722.99609375 nwi_spng_025 
BAS HD I 3 31124.091796875 27711.20703125 nwi_spng_026 
BAS HD I 3 62834.4375 49397.4375 nwi_spng_028 
BAS HD I 4 54779.26953125 47903.0 nwi_spng_029 
BAS HD I 4 44259.82421875 43494.71875 nwi_spng_030 
BAS HD I 3 42127.3203125 42529.75 nwi_spng_031 
BAS HD I 4 43055.5625 44953.12890625 nwi_spng_032 
BAS HD C 3 17264.216796875 31742.16015625 nwi_spng_033 
BAS HD C 3 30695.244140625 43854.33203125 nwi_spng_034 
BAS HD I 4 37662.1640625 48928.62109375 nwi_spng_035 
BAS HD I 3 24819.474609375 54050.71875 nwi_spng_036 
BAS HD I 4 24757.416015625 54600.5859375 nwi_spng_037 
BAS HD I 1 11176.8837890625 46372.58984375 nwi_spng_038 
BAS HD I 3 10679.341796875 57265.4140625 nwi_spng_039 
BAS HD I 3 4925.99560546875 58743.4609375 nwi_spng_041 
BAS HD I 1 64298.75 12838.3974609375 nw2_spng_000 
BAS HD C 2 65497.5546875 11893.90234375 nw2_spng_001 
BAS HD C 3 66007.5390625 11122.357421875 nw2_spng_002 
BAS HD I 2 47795.72265625 30831.177734375 nw2_spng_003 
BAS HD I 3 22936.513671875 26798.244140625 nw2_spng_004 
BAS HD C 2 60930.875 23509.7578125 nw2_spng_005 
BAS HD C 1 83363.2265625 10746.5458984375 nw2_spng_006 
BAS HD I 3 71878.4921875 36717.54296875 nw2_spng_007 
BAS HD I 1 47511.16796875 39658.2578125 nw2_spng_008 
BAS HD I 3 71798.515625 36701.44921875 nw2_spng_009 
BAS HD I 4 68481.2734375 44563.5625 nw2_spng_012 
BAS HD I 4 23398.087890625 41809.4453125 nwi_well_000 
BAS HD I 4 67960.3359375 3359.603515625 gws_well_002 
BAS HD I 4 68601.15625 4817.65673828125 gws_well_004 
BAS HD I 4 68285.1328125 4608.8232421875 gws_well_005 
BAS HD I 4 68925.296875 5105.70654296875 gws_well_006 
BAS HD I 4 68489.515625 7367.54443359375 gws_well_007 
BAS HD I 4 67253.6328125 6994.107421875 gws_well_008 
BAS HD I 4 68025.671875 8206.5205078125 gws_well_009 
BAS HD I 3 83119.3125 17543.56640625 gws_well_010 
BAS HD I 4 66788.046875 7240.765625 gws_well_011 
BAS HD I 4 67705.796875 7958.1005859375 gws_well_012 
BAS HD I 4 67901.859375 8531.244140625 gws_well_013 
BAS HD I 4 67605.484375 8704.912109375 gws_well_015 
BAS HD C 3 66351.59375 10647.6484375 gws_well_016 
BAS HD C 3 66334.578125 10673.3876953125 gws_well_017 
BAS HD I 4 67577.2890625 10349.29296875 gws_well_018 
BAS HD I 2 71331.515625 16463.166015625 gws_well_020 
BAS HD I 1 67927.140625 15903.0712890625 gws_well_021 
BAS HD I 1 68838.734375 16765.02734375 gws_well_022 
BAS HD I 3 68153.8515625 16721.796875 gws_well_023 
BAS HD I 1 68614.6640625 17651.869140625 gws_well_024 
BAS HD I 1 73864.03125 21728.16796875 gws_well_025 
BAS HD I 2 69443.9921875 20419.1328125 gws_well_026 
BAS HD I 3 70247.3828125 22356.431640625 gws_well_027 
BAS HD I 2 69322.6171875 21743.859375 gws_well_028 
BAS HD I 1 70204.3125 22512.806640625 gws_well_029 
BAS HD I 1 68943.234375 21677.486328125 gws_well_030 
BAS HD I 1 68926.1953125 21703.208984375 gws_well_031 
BAS HD I 4 62075.5390625 18168.587890625 gws_well_032 
BAS HD I 3 72000.046875 25940.349609375 gws_well_033 
BAS HD I 3 85477.9296875 35097.921875 gws_well_034 
BAS HD I 4 85793.5078125 35715.38671875 gws_well_035 
BAS HD I 4 93814.984375 41250.87890625 gws_well_036 
BAS HD I 1 81567.8203125 34014.3359375 gws_well_037 
BAS HD I 1 80900.2734375 33607.48828125 gws_well_038 
BAS HD I 4 77214.4375 31232.013671875 gws_well_039 
BAS HD I 3 52757.9765625 20844.876953125 gws_well_040 
BAS HD I 1 50196.52734375 22257.439453125 gws_well_041 
BAS HD I 1 50166.65234375 22348.4921875 gws_well_042 
BAS HD I 3 48305.7265625 22746.083984375 gws_well_043 
BAS HD I 3 46223.8828125 21558.208984375 gws_well_044 
BAS HD I 2 41955.703125 24284.3671875 gws_well_046 
BAS HD I 2 38109.8984375 25000.5703125 gws_well_047 
BAS HD I 2 32849.96875 33129.0625 gws_well_048 
BAS HD I 2 19660.900390625 31103.12109375 gws_well_049 
BAS HD I 1 23145.53125 34718.859375 gws_well_050 
BAS HD I 1 23082.587890625 34677.51171875 gws_well_051 
BAS HD I 1 25416.20703125 36247.83984375 gws_well_052 
BAS HD I 1 16601.05859375 43018.78515625 gws_well_053 
BAS HD I 3 15671.23828125 42743.97265625 gws_well_054 
BAS HD I 2 68979.390625 20192.880859375 w55_well_000 
BAS HD I 2 68810.9296875 18630.74609375 w55_well_001 
BAS HD I 4 67878.21875 6941.85693359375 w55_well_002 
BAS HD I 2 69761.0 19745.240234375 w55_well_003 
BAS HD I 2 69936.7578125 21299.052734375 w55_well_004 
BAS HD I 4 66196.5859375 9897.9033203125 w55_well_005 
BAS HD C 3 66644.2890625 9948.921875 w55_well_006 
BAS HD I 3 91750.1328125 29986.865234375 w55_well_007 
BAS HD I 3 91671.046875 37275.66796875 w55_well_008 
BAS HD I 4 67377.3359375 9937.275390625 w55_well_009 
BAS HD I 4 67776.9375 3635.88134765625 w55_well_011 
BAS HD I 4 66311.6875 10450.94140625 w55_well_012 
BAS HD I 3 65807.90625 10121.384765625 w55_well_013 
BAS HD C 3 66814.34375 10057.009765625 w55_well_014 
BAS HD I 4 66194.03125 5837.04345703125 w55_well_015 
BAS HD I 4 65807.90625 10121.384765625 w55_well_016 
BAS HD I 4 67878.21875 6941.85693359375 w55_well_017 
BAS HD I 4 73285.1640625 5703.12841796875 w55_well_018 
BAS HD I 2 66280.1953125 19529.763671875 w55_well_019 
BAS HD I 2 66616.046875 19752.72265625 w55_well_020 
BAS HD I 2 66875.6953125 15416.4423828125 w55_well_021 
BAS HD I 4 87914.703125 36696.34765625 w55_well_022 
BAS HD I 4 86911.8125 38927.640625 w55_well_023 
BAS HD I 1 68030.859375 19804.60546875 w55_well_024 
BAS HD I 4 66086.046875 10064.658203125 w55_well_025 
BAS HD I 3 66196.5859375 9897.9033203125 w55_well_026 
BAS HD I 4 66773.0078125 8608.3076171875 w55_well_027 
BAS HD I 4 66644.2890625 9948.921875 w55_well_028 
BAS HD I 4 67637.4140625 3665.1494140625 w55_well_029 
BAS HD I 1 67488.265625 19894.677734375 w55_well_030 
BAS HD I 4 76524.6328125 11715.5458984375 w55_well_031 
BAS HD I 1 67488.265625 19894.677734375 w55_well_032 
BAS HD C 1 75572.8984375 11327.4736328125 w55_well_033 
BAS HD C 2 66311.6875 10450.94140625 w55_well_034 
BAS HD I 4 67443.265625 8330.5087890625 w55_well_035 
BAS HD I 4 67613.3203125 8438.59765625 w55_well_036 
BAS HD I 4 67553.8828125 8165.03125 w55_well_037 
BAS HD I 4 68400.796875 4655.02734375 w55_well_038 
BAS HD I 4 68400.796875 4655.02734375 w55_well_039 
BAS HD I 4 68400.796875 4655.02734375 w55_well_040 
BAS HD I 4 68400.796875 4655.02734375 w55_well_041 
BAS HD I 4 68054.90625 3577.820068359375 w55_well_042 
BAS HD I 4 68054.90625 3577.820068359375 w55_well_043 
BAS HD I 4 68571.7578125 4766.18798828125 w55_well_044 
BAS HD I 1 27699.8046875 36398.66796875 w55_well_046 
BAS HD I 3 48569.93359375 22632.7421875 w55_well_047 
BAS HD I 2 42271.9296875 23784.681640625 w55_well_048 
BAS HD I 4 68054.90625 3577.820068359375 w55_well_049 
BAS HD I 1 25868.900390625 31709.47265625 w55_well_051 
BAS HD I 4 67448.859375 3417.14990234375 w55_well_052 
BAS HD I 4 67218.203125 3752.494873046875 w55_well_053 
BAS HD I 3 66364.8359375 10007.1708984375 w55_well_054 
BAS HD I 2 66364.8359375 10007.1708984375 w55_well_055 
BAS HD I 4 67957.90625 3024.030517578125 w55_well_056 
BAS HD I 4 68054.90625 3577.820068359375 w55_well_057 
BAS HD I 4 70554.5859375 4485.77880859375 w55_well_058 
BAS HD I 1 49955.296875 22339.283203125 w55_well_059 
BAS HD I 1 50065.75390625 22171.248046875 w55_well_060 
BAS HD I 4 74925.390625 5944.595703125 w55_well_061 
BAS HD I 4 81189.921875 11065.970703125 w55_well_062 
BAS HD I 4 67588.4609375 3387.939208984375 w55_well_063 
BAS HD I 2 91077.734375 30991.9609375 w55_well_064 
BAS HD I 1 86380.625 34831.11328125 w55_well_065 
BAS HD I 4 67273.2890625 8221.2568359375 w55_well_066 
BAS HD I 4 87579.2734375 35748.55078125 w55_well_067 
BAS HD I 4 66028.40625 9788.6923828125 w55_well_068 
BAS HD I 1 68532.9375 19412.71484375 w55_well_070 
BAS HD I 4 76750.03125 12106.5390625 w55_well_071 
BAS HD I 2 70439.5546875 21631.58203125 w55_well_072 
BAS HD I 4 73852.078125 12117.28515625 w55_well_073 
BAS HD I 2 75022.5078125 12167.7412109375 w55_well_074 
