# RCH package for  MODFLOW-NWT, generated by Flopy.
         3        53
         1        -1 # Stress period 1
OPEN/CLOSE     ../externalfiles/rech_0.ref               1     (FREE) -1 rech_1                        
         1        -1 # Stress period 2
OPEN/CLOSE     ../externalfiles/rech_1.ref               1     (FREE) -1 rech_2                        
         1        -1 # Stress period 3
OPEN/CLOSE     ../externalfiles/rech_2.ref               1     (FREE) -1 rech_3                        
         1        -1 # Stress period 4
OPEN/CLOSE     ../externalfiles/rech_3.ref               1     (FREE) -1 rech_4                        
         1        -1 # Stress period 5
OPEN/CLOSE     ../externalfiles/rech_4.ref               1     (FREE) -1 rech_5                        
         1        -1 # Stress period 6
OPEN/CLOSE     ../externalfiles/rech_5.ref               1     (FREE) -1 rech_6                        
         1        -1 # Stress period 7
OPEN/CLOSE     ../externalfiles/rech_6.ref               1     (FREE) -1 rech_7                        
         1        -1 # Stress period 8
OPEN/CLOSE     ../externalfiles/rech_7.ref               1     (FREE) -1 rech_8                        
         1        -1 # Stress period 9
OPEN/CLOSE     ../externalfiles/rech_8.ref               1     (FREE) -1 rech_9                        
         1        -1 # Stress period 10
OPEN/CLOSE     ../externalfiles/rech_9.ref               1     (FREE) -1 rech_10                       
         1        -1 # Stress period 11
OPEN/CLOSE    ../externalfiles/rech_10.ref               1     (FREE) -1 rech_11                       
         1        -1 # Stress period 12
OPEN/CLOSE    ../externalfiles/rech_11.ref               1     (FREE) -1 rech_12                       
         1        -1 # Stress period 13
OPEN/CLOSE    ../externalfiles/rech_12.ref               1     (FREE) -1 rech_13                       
