# DIS package for  MODFLOW-NWT, generated by Flopy.
         4       208       333        13         4         2
  0  0  0  0
OPEN/CLOSE                      ./delr.ref               1     (FREE) -1 delr                          
OPEN/CLOSE                      ./delc.ref               1     (FREE) -1 delc                          
OPEN/CLOSE                 ./model_top.ref               1     (FREE) -1 model_top                     
OPEN/CLOSE              ./botm_layer_1.ref               1     (FREE) -1 botm_layer_0                  
OPEN/CLOSE              ./botm_layer_2.ref               1     (FREE) -1 botm_layer_1                  
OPEN/CLOSE              ./botm_layer_3.ref               1     (FREE) -1 botm_layer_2                  
OPEN/CLOSE              ./botm_layer_4.ref               1     (FREE) -1 botm_layer_3                  
      1.000000             1  1.000000  SS 
   3653.000000             2  1.414000  TR 
   4018.000000             2  1.414000  TR 
   1095.000000             2  1.414000  TR 
   3653.000000             2  1.414000  TR 
   3652.000000             2  1.414000  TR 
   7305.000000             2  1.414000  TR 
   7305.000000             2  1.414000  TR 
   3653.000000             2  1.414000  TR 
   3652.000000             2  1.414000  TR 
   7305.000000             2  1.414000  TR 
   7304.000000             2  1.414000  TR 
   7305.000000             2  1.414000  TR 
