# DRN package for  MODFLOW-NWT, generated by Flopy.
      2313        53
      2313         0 # stress period 1
         open/close ../externalfiles/DRN_0000.dat
      2313         0 # stress period 2
         open/close ../externalfiles/DRN_0001.dat
      2313         0 # stress period 3
         open/close ../externalfiles/DRN_0002.dat
      2313         0 # stress period 4
         open/close ../externalfiles/DRN_0003.dat
      2313         0 # stress period 5
         open/close ../externalfiles/DRN_0004.dat
      2313         0 # stress period 6
         open/close ../externalfiles/DRN_0005.dat
      2313         0 # stress period 7
         open/close ../externalfiles/DRN_0006.dat
      2313         0 # stress period 8
         open/close ../externalfiles/DRN_0007.dat
      2313         0 # stress period 9
         open/close ../externalfiles/DRN_0008.dat
      2313         0 # stress period 10
         open/close ../externalfiles/DRN_0009.dat
      2313         0 # stress period 11
         open/close ../externalfiles/DRN_0010.dat
      2313         0 # stress period 12
         open/close ../externalfiles/DRN_0011.dat
      2313         0 # stress period 13
         open/close ../externalfiles/DRN_0012.dat
