# WEL package for  MODFLOW-NWT, generated by Flopy.
         4        53 
         4         0 # stress period 1
         open/close ./WEL_0000.dat
         4         0 # stress period 2
         open/close ./WEL_0001.dat
         4         0 # stress period 3
         open/close ./WEL_0002.dat
         4         0 # stress period 4
         open/close ./WEL_0003.dat
         4         0 # stress period 5
         open/close ./WEL_0004.dat
         4         0 # stress period 6
         open/close ./WEL_0005.dat
         4         0 # stress period 7
         open/close ./WEL_0006.dat
         4         0 # stress period 8
         open/close ./WEL_0007.dat
         4         0 # stress period 9
         open/close ./WEL_0008.dat
         4         0 # stress period 10
         open/close ./WEL_0009.dat
         4         0 # stress period 11
         open/close ./WEL_0010.dat
         4         0 # stress period 12
         open/close ./WEL_0011.dat
         4         0 # stress period 13
         open/close ./WEL_0012.dat
