# UPW package for  MODFLOW-NWT, generated by Flopy.
        53    -1E+30         0         0 
         1         1         1         0
         0         0         0         0
  -1.000000E+00  -1.000000E+00  -1.000000E+00  -1.000000E+00
        -1        -1        -1        -1
         0         0         0         0
OPEN/CLOSE  ../externalfiles/hk_Layer_1.ref               1     (FREE) -1 hk                            
OPEN/CLOSE  ../externalfiles/hani_Layer_1.ref               1     (FREE) -1 hani                          
OPEN/CLOSE      ../externalfiles/vani1.ref               1     (FREE) -1 vani                          
OPEN/CLOSE  ../externalfiles/ss_Layer_1.ref               1     (FREE) -1 ss                            
OPEN/CLOSE  ../externalfiles/sy_Layer_1.ref               1     (FREE) -1 sy                            
OPEN/CLOSE  ../externalfiles/hk_Layer_2.ref               1     (FREE) -1 hk                            
OPEN/CLOSE  ../externalfiles/hani_Layer_2.ref               1     (FREE) -1 hani                          
OPEN/CLOSE      ../externalfiles/vani2.ref               1     (FREE) -1 vani                          
OPEN/CLOSE  ../externalfiles/ss_Layer_2.ref               1     (FREE) -1 ss                            
OPEN/CLOSE  ../externalfiles/sy_Layer_2.ref               1     (FREE) -1 sy                            
OPEN/CLOSE  ../externalfiles/hk_Layer_3.ref               1     (FREE) -1 hk                            
OPEN/CLOSE  ../externalfiles/hani_Layer_3.ref               1     (FREE) -1 hani                          
OPEN/CLOSE      ../externalfiles/vani3.ref               1     (FREE) -1 vani                          
OPEN/CLOSE  ../externalfiles/ss_Layer_3.ref               1     (FREE) -1 ss                            
OPEN/CLOSE  ../externalfiles/sy_Layer_3.ref               1     (FREE) -1 sy                            
OPEN/CLOSE  ../externalfiles/hk_Layer_4.ref               1     (FREE) -1 hk                            
OPEN/CLOSE  ../externalfiles/hani_Layer_4.ref               1     (FREE) -1 hani                          
OPEN/CLOSE      ../externalfiles/vani4.ref               1     (FREE) -1 vani                          
OPEN/CLOSE  ../externalfiles/ss_Layer_4.ref               1     (FREE) -1 ss                            
