# NWT package for  MODFLOW-NWT, generated by Flopy.
 1.000e-04 5.000e+02       200 1.000e-05         1         1         1   COMPLEX
